LVTestCase/Loads3M.txt
New Load.LOAD1 Phases=1 Bus1=5.1 kV=0.23 kW=3.5 PF=0.90 Yearly=Shape_1
New Load.LOAD2 Phases=1 Bus1=7.2 kV=0.23 kW=5.0 PF=0.92 Yearly=Shape_2
New Load.LOAD3 Phases=1 Bus1=10.1 kV=0.23 kW=4.5 PF=0.94 Yearly=Shape_3
New Load.LOAD4 Phases=1 Bus1=11.1 kV=0.23 kW=5.0 PF=0.96 Yearly=Shape_4
New Load.LOAD5 Phases=1 Bus1=12.1 kV=0.23 kW=5.5 PF=0.90 Yearly=Shape_5
New Load.LOAD6 Phases=1 Bus1=13.2 kV=0.23 kW=3.5 PF=0.92 Yearly=Shape_6
New Load.LOAD7 Phases=1 Bus1=21.2 kV=0.23 kW=4.0 PF=0.94 Yearly=Shape_7
New Load.LOAD8 Phases=1 Bus1=25.3 kV=0.23 kW=4.5 PF=0.96 Yearly=Shape_8
New Load.LOAD9 Bus1=26.1.2.3 Phases=3 kV=0.23 kW=18 pf=0.88
New Load.LOAD10 Phases=1 Bus1=29.2 kV=0.23 kW=5.5 PF=0.92 Yearly=Shape_10
New Load.LOAD11 Phases=1 Bus1=30.2 kV=0.23 kW=3.5 PF=0.94 Yearly=Shape_11
New Load.LOAD12 Phases=1 Bus1=33.3 kV=0.23 kW=4.0 PF=0.96 Yearly=Shape_12
New Load.LOAD13 Phases=1 Bus1=34.2 kV=0.23 kW=4.5 PF=0.90 Yearly=Shape_13
New Load.LOAD14 Phases=1 Bus1=37.1 kV=0.23 kW=5.0 PF=0.92 Yearly=Shape_14
New Load.LOAD15 Phases=1 Bus1=39.2 kV=0.23 kW=5.5 PF=0.94 Yearly=Shape_15
New Load.LOAD16 Phases=1 Bus1=40.3 kV=0.23 kW=3.5 PF=0.96 Yearly=Shape_16
New Load.LOAD17 Phases=1 Bus1=42.3 kV=0.23 kW=4.0 PF=0.90 Yearly=Shape_17
New Load.LOAD18 Phases=1 Bus1=45.3 kV=0.23 kW=4.5 PF=0.92 Yearly=Shape_18
New Load.LOAD19 Phases=1 Bus1=46.3 kV=0.23 kW=5.0 PF=0.94 Yearly=Shape_19
New Load.LOAD20 Phases=1 Bus1=47.1 kV=0.23 kW=5.5 PF=0.96 Yearly=Shape_20
New Load.LOAD21 Phases=1 Bus1=49.1 kV=0.23 kW=3.5 PF=0.90 Yearly=Shape_21
New Load.LOAD22 Phases=1 Bus1=50.1 kV=0.23 kW=4.0 PF=0.92 Yearly=Shape_22
New Load.LOAD23 Bus1=52.1.2.3 Phases=3 kV=0.23 kW=18 PF=0.88
New Load.LOAD24 Phases=1 Bus1=54.3 kV=0.23 kW=5.0 PF=0.96 Yearly=Shape_24
New Load.LOAD25 Phases=1 Bus1=57.1 kV=0.23 kW=5.5 PF=0.90 Yearly=Shape_25
New Load.LOAD26 Phases=1 Bus1=60.2 kV=0.23 kW=3.5 PF=0.92 Yearly=Shape_26
New Load.LOAD27 Phases=1 Bus1=62.3 kV=0.23 kW=4.0 PF=0.94 Yearly=Shape_27
New Load.LOAD28 Phases=1 Bus1=64.3 kV=0.23 kW=4.5 PF=0.96 Yearly=Shape_28
New Load.LOAD29 Phases=1 Bus1=66.1 kV=0.23 kW=5.0 PF=0.90 Yearly=Shape_29
New Load.LOAD30 Phases=1 Bus1=67.1 kV=0.23 kW=5.5 PF=0.92 Yearly=Shape_30
New Load.LOAD31 Phases=1 Bus1=72.1 kV=0.23 kW=3.5 PF=0.94 Yearly=Shape_31
New Load.LOAD32 Phases=1 Bus1=73.3 kV=0.23 kW=4.0 PF=0.96 Yearly=Shape_32
New Load.LOAD33 Phases=1 Bus1=75.3 kV=0.23 kW=4.5 PF=0.90 Yearly=Shape_33
New Load.LOAD34 Phases=1 Bus1=76.1 kV=0.23 kW=5.0 PF=0.92 Yearly=Shape_34
New Load.LOAD35 Phases=1 Bus1=77.2 kV=0.23 kW=5.5 PF=0.94 Yearly=Shape_35
New Load.LOAD36 Phases=1 Bus1=80.2 kV=0.23 kW=3.5 PF=0.96 Yearly=Shape_36
New Load.LOAD37 Phases=1 Bus1=81.2 kV=0.23 kW=4.0 PF=0.90 Yearly=Shape_37
New Load.LOAD38 Phases=1 Bus1=83.2 kV=0.23 kW=4.5 PF=0.92 Yearly=Shape_38
New Load.LOAD39 Phases=1 Bus1=87.3 kV=0.23 kW=5.0 PF=0.94 Yearly=Shape_39
New Load.LOAD40 Bus1=88.1.2.3 Phases=3 kV=0.23 kW=18 PF=0.88
New Load.LOAD41 Phases=1 Bus1=93.2 kV=0.23 kW=3.5 PF=0.90 Yearly=Shape_41
New Load.LOAD42 Phases=1 Bus1=95.3 kV=0.23 kW=4.0 PF=0.92 Yearly=Shape_42
New Load.LOAD43 Phases=1 Bus1=96.3 kV=0.23 kW=4.5 PF=0.94 Yearly=Shape_43
New Load.LOAD44 Phases=1 Bus1=97.2 kV=0.23 kW=5.0 PF=0.96 Yearly=Shape_44
New Load.LOAD45 Phases=1 Bus1=102.2 kV=0.23 kW=5.5 PF=0.90 Yearly=Shape_45
New Load.LOAD46 Phases=1 Bus1=103.1 kV=0.23 kW=3.5 PF=0.92 Yearly=Shape_46
New Load.LOAD47 Phases=1 Bus1=104.3 kV=0.23 kW=4.0 PF=0.94 Yearly=Shape_47
New Load.LOAD48 Phases=1 Bus1=106.1 kV=0.23 kW=4.5 PF=0.96 Yearly=Shape_48
New Load.LOAD49 Phases=1 Bus1=107.1 kV=0.23 kW=5.0 PF=0.90 Yearly=Shape_49
New Load.LOAD50 Phases=1 Bus1=110.2 kV=0.23 kW=5.5 PF=0.92 Yearly=Shape_50
New Load.LOAD51 Phases=1 Bus1=112.1 kV=0.23 kW=3.5 PF=0.94 Yearly=Shape_51
New Load.LOAD52 Phases=1 Bus1=113.1 kV=0.23 kW=4.0 PF=0.96 Yearly=Shape_52
New Load.LOAD53 Phases=1 Bus1=114.2 kV=0.23 kW=4.5 PF=0.90 Yearly=Shape_53
New Load.LOAD54 Phases=1 Bus1=115.1 kV=0.23 kW=5.0 PF=0.92 Yearly=Shape_54
New Load.LOAD55 Phases=1 Bus1=116.1 kV=0.23 kW=5.5 PF=0.94 Yearly=Shape_55